http://www.emc.ncep.noaa.gov/data/index.html

                             NCEP DATA AVAILABLE


     * FTP access

     * Our FTP site

     * Alternate site:

     * Directions for use of alternate site can be found here (read this
       first!!!!).
     * Alternate site (NWS Gateway File Server Access anonymous FTP site).

     Access via the WWW:

     * GRIB data (click this link for all available data...check the date
       for latest data available!!)

     * AVN (out to 126 hrs for 00 and 12Z runs, 84 for 06 and 18Z runs)
     * MRF
     * Ensemble GRIB data listing
     * Eta
     * RUCS
     * RUC2
     * NGM
     * ECMWF
     * UKMET
     * NWW3

     * Instructions for use of NOAA WAVEWATCH III



     Vis5D homepage
     * Other information

     * Current Weather DATA and Products
     * NWS home page
